Version 4
SHEET 1 1040 680
WIRE 160 112 48 112
WIRE 320 112 240 112
WIRE 320 128 320 112
WIRE 48 160 48 112
WIRE 48 272 48 240
WIRE 256 272 48 272
WIRE 320 272 256 272
WIRE 256 304 256 272
FLAG 256 304 0
SYMBOL voltage 48 144 R0
WINDOW 123 0 0 Left 0
WINDOW 39 0 0 Left 0
SYMATTR InstName V1
SYMATTR Value SINE(0 10 10)
SYMBOL voltage 320 176 R0
WINDOW 0 34 40 Left 2
WINDOW 3 41 71 Left 2
WINDOW 123 0 0 Left 0
WINDOW 39 0 0 Left 0
SYMATTR InstName V2
SYMATTR Value 5
SYMBOL res 256 96 R90
WINDOW 0 0 56 VBottom 2
WINDOW 3 32 56 VTop 2
SYMATTR InstName R1
SYMATTR Value 1k
SYMBOL diode 304 128 R0
SYMATTR InstName D2
SYMATTR Value 1N914
TEXT 16 328 Left 2 !.tran 2s
TEXT 120 -32 Left 3 ;CLIPPER CIRCUIT
